*
*
*
*                       LINUX           Mon Nov 24 23:44:04 2025
*
*
*
*  PROGRAM  advgen
*
*  Name           : advgen - Quantus - (64-bit)
*  Version        : 23.1.1-p051
*  Build Date     : Thu Feb 15 21:11:17 PST 2024
*
*  HSPICE LIBRARY
*
* GLOBAL_TEMPERATURE 25
*  OPERATING_TEMPERATURE 25
*  QRC_TECH_DIR /home/tools/design_kits/cadence/GPDK045/gpdk045_v_6_0/qrc/typical 
*
*!LENGTH_UNITS METERS
*
*
*

*
.SUBCKT nor_x1 A B S gnd! vdd!
*
*
*  caps2d version: 10
*
*
*       TRANSISTOR CARDS
*
*
MMNM1	S#1	B#4	gnd!#6	gnd!	g45n1svt	L=4.5e-08
+ W=1.2e-07
+ AD=1.68e-14	AS=1.68e-14	PD=5.2e-07	PS=5.2e-07
+ fw=1.2e-07 sa=1.4e-07 sb=1.4e-07 sca=6.09161 scb=0.00234335 scc=1.01362e-05
MMNM0	S#6	A#3	gnd!#7	gnd!	g45n1svt	L=4.5e-08
+ W=1.2e-07
+ AD=1.68e-14	AS=1.68e-14	PD=5.2e-07	PS=5.2e-07
+ fw=1.2e-07 sa=1.4e-07 sb=1.4e-07 sca=6.09161 scb=0.00234335 scc=1.01362e-05
MMPM0	net6	B#1	vdd!#5	vdd!	g45p1svt	L=4.5e-08
+ W=1.45e-07
+ AD=2.03e-14	AS=2.03e-14	PD=5.7e-07	PS=5.7e-07
+ fw=1.45e-07 sa=1.4e-07 sb=1.4e-07 sca=24.1448 scb=0.0273703 scc=0.00127836
MMPM1	net6#2	A#1	S#4	vdd!	g45p1svt	L=4.5e-08
+ W=1.45e-07
+ AD=2.03e-14	AS=2.03e-14	PD=5.7e-07	PS=5.7e-07
+ fw=1.45e-07 sa=1.4e-07 sb=1.4e-07 sca=24.1448 scb=0.0273703 scc=0.00127836
*
*
*       RESISTOR AND CAP/DIODE CARDS
*
Rj1	A	A#5	0.502894	$metal2_conn	$W=1.7e-07
+ $X=0.615 $Y=0.795
Rj2	B	B#6	0.500000	$metal2_conn	$W=1.55e-07
+ $X=0.94 $Y=0.805
Rj3	S#5	S	0.505623	$metal2_conn	$W=1.75e-07
+ $X=1.445 $Y=0.78
Rk1	A#5	A#4	45.001732	$metal1_conn	$W=1.835e-07
+ $X=0.615 $Y=0.795
Rk2	B#3	B#6	45.000000	$metal1_conn	$W=1.55e-07
+ $X=0.94 $Y=0.805
Rk3	net6	net6#2	124.857346	$metal1_conn	$W=8.5e-08
+ $X=0.905 $Y=0.985
Rk4	S#1	S#2	75.184586	$metal1_conn	$W=9e-08
+ $X=1.255 $Y=0.505
Rk5	S#2	S#3	0.508719	$metal1_conn	$W=8.5e-08
+ $X=0.905 $Y=0.63
Rk6	S#3	S#4	62.584473	$metal1_conn	$W=9e-08
+ $X=0.35 $Y=0.9275
Rk7	S#2	S#5	0.224218	$metal1_conn	$W=8.75e-08
+ $X=1.255 $Y=0.7
Rk8	S#3	S#6	75.158119	$metal1_conn	$W=9e-08
+ $X=0.555 $Y=0.505
Rk10	vdd!#2	vdd!#4	0.079899	$metal1_conn	$W=1.865e-07
+ $X=0.9415 $Y=1.515
Rk11	vdd!#4	vdd!	0.158180	$metal1_conn	$W=1.865e-07
+ $X=0.559 $Y=1.515
Rk12	vdd!#2	vdd!#5	62.170380	$metal1_conn	$W=9e-08
+ $X=1.05 $Y=1.34
Rk15	gnd!#2	gnd!#4	0.106530	$metal1_conn	$W=1.85e-07
+ $X=0.904 $Y=0.0875
Rk16	gnd!#4	gnd!#5	0.133984	$metal1_conn	$W=1.85e-07
+ $X=0.536 $Y=0.0875
Rk17	gnd!#5	gnd!	0.068782	$metal1_conn	$W=1.85e-07
+ $X=0.2355 $Y=0.0875
Rk18	gnd!#2	gnd!#6	75.172394	$metal1_conn	$W=9e-08
+ $X=1.05 $Y=0.2625
Rk19	gnd!#5	gnd!#7	75.172394	$metal1_conn	$W=9e-08
+ $X=0.35 $Y=0.2625
Rl1	A#1	A#2	139.618149	$poly_conn	$W=3.9e-08
+ $X=0.4525 $Y=0.978
Rl2	A#2	A#3	130.002762	$poly_conn	$W=3.9e-08
+ $X=0.4525 $Y=0.6
Rl3	A#2	A#4	39.241051	$poly_conn	$W=3.9e-08
+ $X=0.515 $Y=0.7825
Rl4	B#1	B#2	132.887375	$poly_conn	$W=3.9e-08
+ $X=1.1525 $Y=0.987
Rl5	B#2	B#3	60.452785	$poly_conn	$W=3.9e-08
+ $X=1.06 $Y=0.8
Rl6	B#2	B#4	136.733521	$poly_conn	$W=3.9e-08
+ $X=1.1525 $Y=0.6085
*
*       CAPACITOR CARDS
*
*
C1	A	gnd!	3.57051e-17	$X=0.6245 $Y=0.807
C2	S	gnd!	2.91175e-17	$X=1.447 $Y=0.767
C3	vdd!	gnd!	1.28907e-16	$X=0.541 $Y=1.3525
C4	net6	gnd!	1.18396e-16	$X=1.2495 $Y=1.1725
C5	B#1	gnd!	4.74113e-17	$X=1.152 $Y=1.19
C6	A#1	gnd!	4.32659e-17	$X=0.452 $Y=1.1855
C7	B#4	gnd!	4.77252e-17	$X=1.152 $Y=0.414
C8	A#3	gnd!	4.467e-17	$X=0.452 $Y=0.4095
C9	B#3	gnd!	3.12185e-17	$X=0.9395 $Y=0.8045
C10	A#4	gnd!	3.11193e-17	$X=0.6145 $Y=0.7895
C11	S#5	gnd!	4.69199e-17	$X=1.322 $Y=0.7695
C12	B#6	gnd!	1.35115e-16	$X=0.9295 $Y=0.807
C13	A#5	gnd!	9.53909e-17	$X=0.6245 $Y=0.807
C14	vdd!#5	gnd!	3.50782e-17	$X=1.0545 $Y=1.2325
C15	net6#2	gnd!	1.44097e-16	$X=0.5495 $Y=1.1725
C16	S#4	gnd!	7.92744e-17	$X=0.3545 $Y=1.1475
C17	S#1	gnd!	3.39187e-17	$X=1.2495 $Y=0.3955
C18	S#6	gnd!	3.3057e-17	$X=0.5495 $Y=0.3955
C19	S#2	gnd!	7.26956e-17	$X=1.065 $Y=0.6295
C20	S#3	gnd!	1.3566e-16	$X=0.5545 $Y=0.5825
C21	vdd!#2	gnd!	3.68093e-17	$X=1.342 $Y=1.514
C22	vdd!#4	gnd!	2.32392e-17	$X=0.782 $Y=1.5115
C23	A#2	gnd!	3.53365e-17	$X=0.452 $Y=0.7885
C24	B#2	gnd!	4.17255e-17	$X=1.152 $Y=0.7975
*
*
.ENDS nor_x1
*
