*
*
*
*                       LINUX           Mon Nov 24 17:21:09 2025
*
*
*
*  PROGRAM  advgen
*
*  Name           : advgen - Quantus - (64-bit)
*  Version        : 23.1.1-p051
*  Build Date     : Thu Feb 15 21:11:17 PST 2024
*
*  HSPICE LIBRARY
*
* GLOBAL_TEMPERATURE 25
*  OPERATING_TEMPERATURE 25
*  QRC_TECH_DIR /home/tools/design_kits/cadence/GPDK045/gpdk045_v_6_0/qrc/typical 
*
*!LENGTH_UNITS METERS
*
*
*

*
.SUBCKT inv_x2 Vin Vout gnd! vdd!
*
*
*  caps2d version: 10
*
*
*       TRANSISTOR CARDS
*
*
MMNM0	Vout#3	Vin#4	gnd!#3	gnd!	g45n1svt	L=4.5e-08
+ W=2.4e-07
+ AD=3.36e-14	AS=3.36e-14	PD=7.6e-07	PS=7.6e-07
+ fw=2.4e-07 sa=1.4e-07 sb=1.4e-07 sca=4.82293 scb=0.000845673 scc=1.19259e-06
MMPM0	Vout#1	Vin#1	vdd!#3	vdd!	g45p1svt	L=4.5e-08
+ W=2.9e-07
+ AD=4.06e-14	AS=4.06e-14	PD=8.6e-07	PS=8.6e-07
+ fw=2.9e-07 sa=1.4e-07 sb=1.4e-07 sca=68.6209 scb=0.0512401 scc=0.00647961
*
*
*       RESISTOR AND CAP/DIODE CARDS
*
Rj1	Vin	Vin#5	0.536288	$metal2_conn	$W=1.15e-07
+ $X=0.1355 $Y=0.93
Rj2	Vout	Vout#2	0.278471	$metal2_conn	$W=1.15e-07
+ $X=0.5545 $Y=0.93
Rk1	Vin#5	Vin#3	22.534073	$metal1_conn	$W=2.15e-07
+ $X=0.2325 $Y=0.93
Rk2	Vout#1	Vout#2	31.354765	$metal1_conn	$W=9e-08
+ $X=0.445 $Y=1.1875
Rk3	Vout#2	Vout#3	37.767441	$metal1_conn	$W=9e-08
+ $X=0.445 $Y=0.7025
Rk4	vdd!	vdd!#2	0.003785	$metal1_conn	$W=2.55e-07
+ $X=0.335 $Y=1.8825
Rk5	vdd!#2	vdd!#3	31.275257	$metal1_conn	$W=9e-08
+ $X=0.24 $Y=1.6475
Rk8	gnd!	gnd!#3	37.746918	$metal1_conn	$W=9e-08
+ $X=0.24 $Y=0.3475
Rl1	Vin#1	Vin#2	130.935577	$poly_conn	$W=3.9e-08
+ $X=0.3425 $Y=1.168
Rl2	Vin#2	Vin#3	1.546955	$poly_conn	$W=2.34e-07
+ $X=0.319 $Y=0.925
Rl3	Vin#2	Vin#4	96.320198	$poly_conn	$W=3.9e-08
+ $X=0.3425 $Y=0.7275
*
*       CAPACITOR CARDS
*
*
C1	Vin	gnd!	2.81596e-17	$X=0.1995 $Y=0.929
C2	vdd!	gnd!	5.9655e-17	$X=0.4075 $Y=1.6895
C3	Vin#1	gnd!	4.24485e-17	$X=0.342 $Y=1.423
C4	Vin#4	gnd!	3.70847e-17	$X=0.342 $Y=0.5175
C5	Vin#3	gnd!	4.57207e-17	$X=0.342 $Y=0.947
C6	Vout#2	gnd!	1.04498e-16	$X=0.467 $Y=0.9315
C7	Vin#5	gnd!	7.41622e-17	$X=0.2695 $Y=0.924
C8	Vout#1	gnd!	6.11034e-17	$X=0.4395 $Y=1.3965
C9	vdd!#3	gnd!	4.06156e-17	$X=0.2445 $Y=1.453
C10	Vout#3	gnd!	4.97999e-17	$X=0.4395 $Y=0.554
*
*
.ENDS inv_x2
*
