Circuit: * C:\Users\aluno\Desktop\Draft1.asc

.OP point found by inspection.

Date: Mon May 11 09:10:14 2026
Total elapsed time: 0.199 seconds.

tnom = 27
temp = 27
method = modified trap
totiter = 40070
traniter = 40070
tranpoints = 20036
accept = 20035
rejected = 1
matrix size = 9
fillins = 3
solver = Normal
Avg thread counts: 1.0/1.0/1.0/1.0
Matrix Compiler1: 616 bytes object code size  0.3/0.2/[0.2]
Matrix Compiler2: 729 bytes object code size  0.1/0.2/[0.1]

