*
*
*
*                       LINUX           Tue Nov 25 17:07:24 2025
*
*
*
*  PROGRAM  advgen
*
*  Name           : advgen - Quantus - (64-bit)
*  Version        : 23.1.1-p051
*  Build Date     : Thu Feb 15 21:11:17 PST 2024
*
*  HSPICE LIBRARY
*
* GLOBAL_TEMPERATURE 25
*  OPERATING_TEMPERATURE 25
*  QRC_TECH_DIR /home/tools/design_kits/cadence/GPDK045/gpdk045_v_6_0/qrc/typical 
*
*!LENGTH_UNITS METERS
*
*
*

*
.SUBCKT xnor_x1 A B S gnd! vdd!
*
*
*  caps2d version: 10
*
*
*       TRANSISTOR CARDS
*
*
MXI13/MNM0	net22#9	B#4	gnd!#12	gnd!	g45n1svt
+ L=4.5e-08	W=1.2e-07
+ AD=1.68e-14	AS=1.68e-14	PD=5.2e-07	PS=5.2e-07
+ fw=1.2e-07 sa=1.4e-07 sb=1.4e-07 sca=4.46017 scb=0.000436376 scc=1.63659e-07
MXI12/MNM0	net14#7	A#4	gnd!#13	gnd!	g45n1svt
+ L=4.5e-08	W=1.2e-07
+ AD=1.68e-14	AS=1.68e-14	PD=5.2e-07	PS=5.2e-07
+ fw=1.2e-07 sa=1.4e-07 sb=1.4e-07 sca=4.46017 scb=0.000436376 scc=1.63659e-07
MMNM0	S#6	A#9	net24#4	gnd!	g45n1svt	L=4.5e-08
+ W=1.2e-07
+ AD=1.68e-14	AS=1.68e-14	PD=5.2e-07	PS=5.2e-07
+ fw=1.2e-07 sa=1.4e-07 sb=1.4e-07 sca=4.46017 scb=0.000436376 scc=1.63659e-07
MMNM2	S#8	net14	net25	gnd!	g45n1svt	L=4.5e-08
+ W=1.2e-07
+ AD=1.68e-14	AS=1.68e-14	PD=5.2e-07	PS=5.2e-07
+ fw=1.2e-07 sa=1.4e-07 sb=1.4e-07 sca=4.46017 scb=0.000436376 scc=1.63659e-07
MMNM3	net25#2	B#7	gnd!#10	gnd!	g45n1svt
+ L=4.5e-08	W=1.2e-07
+ AD=1.68e-14	AS=1.68e-14	PD=5.2e-07	PS=5.2e-07
+ fw=1.2e-07 sa=1.4e-07 sb=1.4e-07 sca=4.46017 scb=0.000436376 scc=1.63659e-07
MMNM1	net24#2	net22	gnd!#11	gnd!	g45n1svt
+ L=4.5e-08	W=1.2e-07
+ AD=1.68e-14	AS=1.68e-14	PD=5.2e-07	PS=5.2e-07
+ fw=1.2e-07 sa=1.4e-07 sb=1.4e-07 sca=4.46017 scb=0.000436376 scc=1.63659e-07
MXI12/MPM0	net14#5	A#1	vdd!#8	vdd!	g45p1svt
+ L=4.5e-08	W=1.45e-07
+ AD=2.03e-14	AS=2.03e-14	PD=5.7e-07	PS=5.7e-07
+ fw=1.45e-07 sa=1.4e-07 sb=1.4e-07 sca=31.4202 scb=0.0358526 scc=0.00253079
MXI13/MPM0	net22#6	B#1	vdd!#10	vdd!	g45p1svt
+ L=4.5e-08	W=1.45e-07
+ AD=2.03e-14	AS=2.03e-14	PD=5.7e-07	PS=5.7e-07
+ fw=1.45e-07 sa=1.4e-07 sb=1.4e-07 sca=23.8249 scb=0.0247044 scc=0.0021592
MMPM0	net4#2	A#8	vdd!#9	vdd!	g45p1svt	L=4.5e-08
+ W=1.45e-07
+ AD=2.03e-14	AS=2.03e-14	PD=5.7e-07	PS=5.7e-07
+ fw=1.45e-07 sa=1.4e-07 sb=1.4e-07 sca=23.8155 scb=0.0247027 scc=0.0021592
MMPM1	S#5	B#5	net4	vdd!	g45p1svt	L=4.5e-08
+ W=1.45e-07
+ AD=2.03e-14	AS=2.03e-14	PD=5.7e-07	PS=5.7e-07
+ fw=1.45e-07 sa=1.4e-07 sb=1.4e-07 sca=23.8155 scb=0.0247027 scc=0.0021592
MMPM2	S#3	net22#4	net9#2	vdd!	g45p1svt	L=4.5e-08
+ W=1.45e-07
+ AD=2.03e-14	AS=2.03e-14	PD=5.7e-07	PS=5.7e-07
+ fw=1.45e-07 sa=1.4e-07 sb=1.4e-07 sca=23.8155 scb=0.0247027 scc=0.0021592
MMPM3	net9	net14#3	vdd!#1	vdd!	g45p1svt	L=4.5e-08
+ W=1.45e-07
+ AD=2.03e-14	AS=2.03e-14	PD=5.7e-07	PS=5.7e-07
+ fw=1.45e-07 sa=1.4e-07 sb=1.4e-07 sca=26.9072 scb=0.0281197 scc=0.00218359
*
*
*       RESISTOR AND CAP/DIODE CARDS
*
Ri1	net14#16	net14#12	2.090930	$metal3_conn
+ $W=1e-07	$X=1.6125 $Y=0.715
Ri2	net24#7	net24#5	2.027969	$metal3_conn
+ $W=1e-07	$X=3.735 $Y=0.86
Rj1	net14#12	net14#6	0.533184	$metal2_conn
+ $W=1.25e-07	$X=0.59 $Y=0.915
Rj2	A#13	A	1.101197	$metal2_conn	$W=1.12e-07
+ $X=0.7175 $Y=1.16
Rj3	A	A#11	0.533722	$metal2_conn	$W=1.3e-07
+ $X=0.11 $Y=0.93
Rj4	net24#5	net24	0.500000	$metal2_conn	$W=1.25e-07
+ $X=1.815 $Y=0.965
Rj5	B#11	B	1.182103	$metal2_conn	$W=1.085e-07
+ $X=1.4875 $Y=0.71
Rj6	B	B#8	0.535497	$metal2_conn	$W=1.3e-07
+ $X=0.785 $Y=0.93
Rj7	net14#11	net14#9	1.019766	$metal2_conn
+ $W=1e-07	$X=3.25 $Y=1.18
Rj8	net14#9	net14#16	0.112934	$metal2_conn
+ $W=1e-07	$X=2.75 $Y=0.715
Rj9	S	S#1	0.512989	$metal2_conn	$W=1.5e-07
+ $X=3.845 $Y=1.0475
Rj10	net24#7	net24#3	0.500000	$metal2_conn
+ $W=1.55e-07	$X=3.85 $Y=0.86
Rk1	A#11	A#3	22.534164	$metal1_conn	$W=2.15e-07
+ $X=0.2325 $Y=0.93
Rk2	net14#5	net14#6	62.412437	$metal1_conn
+ $W=9e-08	$X=0.445 $Y=1.2275
Rk3	net14#6	net14#7	75.321167	$metal1_conn
+ $W=9e-08	$X=0.445 $Y=0.6775
Rk4	B#8	B#3	22.534164	$metal1_conn	$W=2.15e-07
+ $X=0.9075 $Y=0.93
Rk5	net22#6	net22#7	62.439228	$metal1_conn
+ $W=9e-08	$X=1.12 $Y=1.2275
Rk6	net22#7	net22#3	45.024403	$metal1_conn
+ $W=1.3e-07	$X=1.175 $Y=0.9225
Rk7	net22#7	net22#9	75.336884	$metal1_conn
+ $W=9e-08	$X=1.12 $Y=0.6775
Rk8	A#13	A#7	45.002048	$metal1_conn	$W=1.55e-07
+ $X=1.325 $Y=1.16
Rk9	net24	net24#2	75.371521	$metal1_conn	$W=9e-08
+ $X=1.71 $Y=0.655
Rk10	net4	net4#2	124.157600	$metal1_conn	$W=1.55e-07
+ $X=1.9375 $Y=1.4975
Rk11	B#6	B#11	45.002819	$metal1_conn	$W=1.125e-07
+ $X=2.19 $Y=0.71
Rk12	A#10	A#5	90.286316	$metal1_conn	$W=9e-08
+ $X=2.2525 $Y=0.98
Rk13	net22#5	net22#2	90.806076	$metal1_conn
+ $W=9e-08	$X=2.025 $Y=1.16
Rk14	net25	net25#2	150.218262	$metal1_conn	$W=1.25e-07
+ $X=2.55 $Y=0.47
Rk15	net14#2	net14#9	45.500000	$metal1_conn
+ $W=1.7e-07	$X=2.865 $Y=0.715
Rk16	net9	net9#2	124.182159	$metal1_conn	$W=1.55e-07
+ $X=3.1775 $Y=1.4975
Rk17	net14#4	net14#11	45.000000	$metal1_conn
+ $W=1e-07	$X=3.505 $Y=1.18
Rk18	net24#3	net24#4	75.431534	$metal1_conn
+ $W=9.85e-08	$X=3.85 $Y=0.66
Rk19	S#1	S#2	0.340282	$metal1_conn	$W=8.5e-08
+ $X=3.5975 $Y=1.03
Rk20	S#2	S#4	0.814405	$metal1_conn	$W=8.5e-08
+ $X=3.075 $Y=1.03
Rk21	S#4	S#5	62.170288	$metal1_conn	$W=1.55e-07
+ $X=2.5425 $Y=1.4975
Rk22	S#2	S#7	0.387125	$metal1_conn	$W=1e-07
+ $X=3.4 $Y=0.765
Rk23	S#7	S#8	75.218575	$metal1_conn	$W=1.25e-07
+ $X=3.2 $Y=0.47
Rk24	S#3	S#4	62.000000	$metal1_conn	$W=8.5e-08
+ $X=2.75 $Y=1.495
Rk25	S#6	S#7	75.000000	$metal1_conn	$W=1e-07
+ $X=3.4 $Y=0.47
Rk26	vdd!#1	vdd!#2	62.737053	$metal1_conn	$W=9e-08
+ $X=3.605 $Y=1.6375
Rk27	vdd!#2	vdd!#4	0.133875	$metal1_conn	$W=2.55e-07
+ $X=1.284 $Y=1.8725
Rk28	vdd!#4	vdd!#5	0.023808	$metal1_conn	$W=2.55e-07
+ $X=0.9535 $Y=1.8725
Rk29	vdd!#5	vdd!	0.142730	$metal1_conn	$W=2.55e-07
+ $X=0.634 $Y=1.8725
Rk30	vdd!	vdd!#7	0.003795	$metal1_conn	$W=2.55e-07
+ $X=0.335 $Y=1.85
Rk31	vdd!#7	vdd!#8	62.226295	$metal1_conn	$W=9e-08
+ $X=0.24 $Y=1.6375
Rk32	vdd!#2	vdd!#9	62.211876	$metal1_conn	$W=9e-08
+ $X=1.54 $Y=1.6375
Rk33	vdd!#5	vdd!#10	62.211876	$metal1_conn	$W=9e-08
+ $X=0.915 $Y=1.6375
Rk37	gnd!#2	gnd!#3	0.157682	$metal1_conn	$W=2.55e-07
+ $X=1.8175 $Y=0.1275
Rk38	gnd!#3	gnd!#5	0.123753	$metal1_conn	$W=2.55e-07
+ $X=1.269 $Y=0.1275
Rk39	gnd!#5	gnd!#6	0.025073	$metal1_conn	$W=2.55e-07
+ $X=0.956 $Y=0.1275
Rk40	gnd!#6	gnd!#8	0.145261	$metal1_conn	$W=2.55e-07
+ $X=0.6365 $Y=0.1275
Rk41	gnd!#8	gnd!#9	0.025073	$metal1_conn	$W=2.55e-07
+ $X=0.281 $Y=0.1275
Rk42	gnd!#9	gnd!	0.022543	$metal1_conn	$W=2.55e-07
+ $X=0.1805 $Y=0.1275
Rk43	gnd!#2	gnd!#10	75.190491	$metal1_conn	$W=9e-08
+ $X=2.13 $Y=0.3475
Rk44	gnd!#3	gnd!#11	75.190491	$metal1_conn	$W=9e-08
+ $X=1.505 $Y=0.3475
Rk45	gnd!#6	gnd!#12	75.190491	$metal1_conn	$W=9e-08
+ $X=0.915 $Y=0.3475
Rk46	gnd!#9	gnd!#13	75.190491	$metal1_conn	$W=9e-08
+ $X=0.24 $Y=0.3475
Rl1	A#1	A#2	182.858658	$poly_conn	$W=3.9e-08
+ $X=0.3425 $Y=1.2355
Rl2	A#2	A#3	1.546955	$poly_conn	$W=2.34e-07
+ $X=0.319 $Y=0.925
Rl3	A#2	A#4	142.474045	$poly_conn	$W=3.9e-08
+ $X=0.3425 $Y=0.6675
Rl4	B#1	B#2	182.858658	$poly_conn	$W=3.9e-08
+ $X=1.0175 $Y=1.2355
Rl5	B#2	B#3	1.546955	$poly_conn	$W=2.34e-07
+ $X=0.994 $Y=0.925
Rl6	B#2	B#4	142.474045	$poly_conn	$W=3.9e-08
+ $X=1.0175 $Y=0.6675
Rl7	net22	net22#2	149.232834	$poly_conn	$W=3.9e-08
+ $X=1.6075 $Y=0.717
Rl8	net22#2	net22#3	113.236511	$poly_conn
+ $W=3.9e-08	$X=1.38 $Y=0.9275
Rl9	A#5	A#6	214.131210	$poly_conn	$W=3.9e-08
+ $X=2.0825 $Y=1.0875
Rl10	A#6	A#7	106.905762	$poly_conn	$W=3.9e-08
+ $X=1.5 $Y=1.1575
Rl11	A#6	A#8	95.835342	$poly_conn	$W=3.9e-08
+ $X=1.6425 $Y=1.3025
Rl12	B#5	B#6	260.771301	$poly_conn	$W=3.9e-08
+ $X=2.2325 $Y=1.093
Rl13	B#6	B#7	55.002056	$poly_conn	$W=3.9e-08
+ $X=2.2325 $Y=0.595
Rl14	net22#4	net22#5	223.801208	$poly_conn
+ $W=3.9e-08	$X=2.8005 $Y=1.1575
Rl15	net14	net14#2	56.925137	$poly_conn	$W=3.9e-08
+ $X=2.8675 $Y=0.597
Rl16	A#9	A#10	532.901978	$poly_conn	$W=3.9e-08
+ $X=3.158 $Y=0.8975
Rl17	net14#3	net14#4	80.002060	$poly_conn
+ $W=3.9e-08	$X=3.5025 $Y=1.328
*
*       CAPACITOR CARDS
*
*
C1	A	gnd!	7.94629e-17	$X=0.1095 $Y=1.037
C2	B	gnd!	1.49398e-16	$X=0.7845 $Y=0.8195
C3	S	gnd!	2.08837e-17	$X=3.839 $Y=1.124
C4	vdd!	gnd!	1.9519e-16	$X=0.9875 $Y=1.8055
C5	net22	gnd!	1.07972e-16	$X=1.385 $Y=0.716
C6	net14	gnd!	2.57149e-17	$X=2.8665 $Y=0.4525
C7	net24	gnd!	8.59376e-17	$X=1.809 $Y=0.907
C8	net25	gnd!	5.76442e-17	$X=2.723 $Y=0.4695
C9	net4	gnd!	5.29619e-17	$X=2.0935 $Y=1.497
C10	net9	gnd!	5.93566e-17	$X=3.356 $Y=1.497
C11	net14#3	gnd!	3.59964e-17	$X=3.5015 $Y=1.4985
C12	net22#4	gnd!	5.78645e-17	$X=2.8515 $Y=1.402
C13	B#5	gnd!	6.78898e-17	$X=2.2315 $Y=1.381
C14	A#8	gnd!	3.63877e-17	$X=1.6415 $Y=1.4855
C15	B#1	gnd!	5.13948e-17	$X=1.017 $Y=1.4525
C16	A#1	gnd!	4.76272e-17	$X=0.342 $Y=1.4525
C17	A#9	gnd!	1.00431e-16	$X=3.5015 $Y=0.6145
C18	B#7	gnd!	2.99477e-17	$X=2.2315 $Y=0.452
C19	B#4	gnd!	4.66135e-17	$X=1.017 $Y=0.488
C20	A#4	gnd!	4.24849e-17	$X=0.342 $Y=0.488
C21	net14#4	gnd!	3.27268e-17	$X=3.5015 $Y=1.228
C22	net14#2	gnd!	4.22435e-17	$X=2.8665 $Y=0.6805
C23	net22#5	gnd!	1.87843e-16	$X=2.4545 $Y=1.158
C24	A#10	gnd!	1.77756e-16	$X=2.5815 $Y=0.938
C25	B#6	gnd!	7.64846e-17	$X=2.2315 $Y=0.8435
C26	A#5	gnd!	1.26774e-16	$X=2.1245 $Y=1.0145
C27	net22#2	gnd!	1.70609e-16	$X=1.56 $Y=1.0055
C28	A#7	gnd!	4.05773e-17	$X=1.319 $Y=1.1595
C29	net22#3	gnd!	4.65293e-17	$X=1.1895 $Y=0.9295
C30	B#3	gnd!	8.2616e-17	$X=1.017 $Y=0.951
C31	A#3	gnd!	5.78996e-17	$X=0.342 $Y=0.951
C32	net24#7	gnd!	7.49108e-17	$X=3.619 $Y=0.912
C33	net14#16	gnd!	1.35796e-16	$X=2.392 $Y=0.7145
C34	net24#5	gnd!	1.52232e-16	$X=2.034 $Y=0.9755
C35	net14#12	gnd!	7.2497e-17	$X=1.0905 $Y=0.7145
C36	net24#3	gnd!	9.16136e-17	$X=3.8425 $Y=0.775
C37	S#1	gnd!	1.02369e-16	$X=3.839 $Y=1.0615
C38	net14#11	gnd!	1.65489e-16	$X=3.3965 $Y=1.1795
C39	net14#9	gnd!	1.30349e-16	$X=2.9265 $Y=0.8335
C40	B#11	gnd!	1.73064e-16	$X=1.9855 $Y=0.708
C41	A#13	gnd!	1.62778e-16	$X=1.177 $Y=1.153
C42	net22#7	gnd!	1.13454e-16	$X=1.177 $Y=0.9195
C43	B#8	gnd!	8.34405e-17	$X=0.9445 $Y=0.9245
C44	net14#6	gnd!	1.53293e-16	$X=0.512 $Y=0.917
C45	A#11	gnd!	6.71155e-17	$X=0.2695 $Y=0.9245
C46	vdd!#1	gnd!	1.20219e-16	$X=3.36 $Y=1.6845
C47	net9#2	gnd!	6.06027e-17	$X=2.997 $Y=1.497
C48	S#3	gnd!	1.27569e-16	$X=2.754 $Y=1.3905
C49	S#5	gnd!	5.3105e-17	$X=2.373 $Y=1.497
C50	net4#2	gnd!	5.13659e-17	$X=1.7795 $Y=1.497
C51	vdd!#9	gnd!	3.48375e-17	$X=1.544 $Y=1.5135
C52	net22#6	gnd!	5.16628e-17	$X=1.1145 $Y=1.4475
C53	vdd!#10	gnd!	3.64246e-17	$X=0.9195 $Y=1.5135
C54	net14#5	gnd!	5.2614e-17	$X=0.4395 $Y=1.4445
C55	vdd!#8	gnd!	2.84178e-17	$X=0.2445 $Y=1.516
C56	net24#4	gnd!	6.93054e-17	$X=3.66 $Y=0.4695
C57	S#6	gnd!	6.97178e-17	$X=3.404 $Y=0.528
C58	S#8	gnd!	5.36479e-17	$X=3.014 $Y=0.4695
C59	net25#2	gnd!	4.59878e-17	$X=2.375 $Y=0.4695
C60	net24#2	gnd!	5.37379e-17	$X=1.704 $Y=0.5075
C61	net22#9	gnd!	5.36207e-17	$X=1.1145 $Y=0.506
C62	net14#7	gnd!	4.79415e-17	$X=0.4395 $Y=0.5095
C63	S#2	gnd!	1.46234e-16	$X=3.399 $Y=0.9125
C64	vdd!#2	gnd!	1.0504e-16	$X=2.124 $Y=1.872
C65	vdd!#5	gnd!	3.39334e-17	$X=0.9145 $Y=1.8185
C66	A#6	gnd!	6.06654e-17	$X=1.6415 $Y=1.2175
*
*
.ENDS xnor_x1
*
